LTspice 24.1.9 for Windows
Circuit: C:\Users\akash\Documents\git\YouHaveThePower\spice_sims\HW precharge\HW_precharge.net
Start Time: Fri Sep 19 22:13:59 2025
solver = Normal
Maximum thread count: 12
tnom = 27
temp = 27
method = trap
Direct Newton iteration for .op point succeeded.
Total elapsed time: 14.236 seconds.

Files loaded:
C:\Users\akash\Documents\git\YouHaveThePower\spice_sims\HW precharge\HW_precharge.net
C:\Users\akash\AppData\Local\LTspice\lib\cmp\standard.mos
C:\Users\akash\AppData\Local\LTspice\lib\sub\AD8017.sub

