LTspice 24.1.9 for Windows
Circuit: C:\Users\akash\Documents\git\YouHaveThePower\spice_sims\bjt redriver.net
Start Time: Tue Sep 16 21:44:53 2025
solver = Normal
Maximum thread count: 12
tnom = 27
temp = 27
method = trap
Direct Newton iteration for .op point succeeded.
Total elapsed time: 3.904 seconds.

Files loaded:
C:\Users\akash\Documents\git\YouHaveThePower\spice_sims\bjt redriver.net
C:\Users\akash\AppData\Local\LTspice\lib\cmp\standard.bjt

