LTspice 24.1.9 for Windows
Circuit: C:\Users\akash\Documents\git\YouHaveThePower\spice_sims\HighSideDriver\HighSideDriver.net
Start Time: Sat Sep 20 11:40:14 2025
solver = Normal
Maximum thread count: 12
tnom = 27
temp = 27
method = trap
Direct Newton iteration for .op point succeeded.
Total elapsed time: 1.335 seconds.

Files loaded:
C:\Users\akash\Documents\git\YouHaveThePower\spice_sims\HighSideDriver\HighSideDriver.net
C:\Users\akash\AppData\Local\LTspice\lib\cmp\standard.dio
C:\Users\akash\AppData\Local\LTspice\lib\cmp\standard.mos

